[Format]      =  4.0
[Frequency]   =  48350
[Precision]   =  1.0000000000000001e-009
[MinAngle]    =  20
[DoSmartMesh] =  1
[Depth]       =  0.042000000000000003
[LengthUnits] =  meters
[ProblemType] =  planar
[Coordinates] =  cartesian
[ACSolver]    =  0
[PrevType]    =  0
[PrevSoln]    =  ""
[Comment]     =  "Add comments here."
[PointProps]   = 0
[BdryProps]   = 1
  <BeginBdry>
    <BdryName> = "Z"
    <BdryType> = 0
    <A_0> = 0
    <A_1> = 0
    <A_2> = 0
    <Phi> = 0
    <c0> = 0
    <c0i> = 0
    <c1> = 0
    <c1i> = 0
    <Mu_ssd> = 0
    <Sigma_ssd> = 0
    <innerangle> = 0
    <outerangle> = 0
  <EndBdry>
[BlockProps]  = 4
  <BeginBlock>
    <BlockName> = "A"
    <Mu_x> = 1
    <Mu_y> = 1
    <H_c> = 0
    <H_cAngle> = 0
    <J_re> = 0
    <J_im> = 0
    <Sigma> = 0
    <d_lam> = 0
    <Phi_h> = 0
    <Phi_hx> = 0
    <Phi_hy> = 0
    <LamType> = 0
    <LamFill> = 1
    <NStrands> = 0
    <WireD> = 0
    <BHPoints> = 0
  <EndBlock>
  <BeginBlock>
    <BlockName> = "FE"
    <Mu_x> = 18.630398538993681
    <Mu_y> = 18.630398538993681
    <H_c> = 0
    <H_cAngle> = 0
    <J_re> = 0
    <J_im> = 0
    <Sigma> = 0
    <d_lam> = 0
    <Phi_h> = 0
    <Phi_hx> = 0
    <Phi_hy> = 0
    <LamType> = 0
    <LamFill> = 1
    <NStrands> = 0
    <WireD> = 0
    <BHPoints> = 0
  <EndBlock>
  <BeginBlock>
    <BlockName> = "CU"
    <Mu_x> = 1
    <Mu_y> = 1
    <H_c> = 0
    <H_cAngle> = 0
    <J_re> = 0
    <J_im> = 0
    <Sigma> = 37.131565751982535
    <d_lam> = 0
    <Phi_h> = 0
    <Phi_hx> = 0
    <Phi_hy> = 0
    <LamType> = 5
    <LamFill> = 1
    <NStrands> = 1949
    <WireD> = 0.17999999999999999
    <BHPoints> = 0
  <EndBlock>
  <BeginBlock>
    <BlockName> = "AL"
    <Mu_x> = 1
    <Mu_y> = 1
    <H_c> = 0
    <H_cAngle> = 0
    <J_re> = 0
    <J_im> = 0
    <Sigma> = 37.131565751982535
    <d_lam> = 0
    <Phi_h> = 0
    <Phi_hx> = 0
    <Phi_hy> = 0
    <LamType> = 0
    <LamFill> = 1
    <NStrands> = 1949
    <WireD> = 0.17999999999999999
    <BHPoints> = 0
  <EndBlock>
[CircuitProps]  = 2
  <BeginCircuit>
    <CircuitName> = "W1"
    <TotalAmps_re> = 1.9703991005853192
    <TotalAmps_im> = 0
    <CircuitType> = 1
  <EndCircuit>
  <BeginCircuit>
    <CircuitName> = "W2"
    <TotalAmps_re> = 0
    <TotalAmps_im> = 0
    <CircuitType> = 1
  <EndCircuit>
[NumPoints] = 148
-0.13419999999999999	-0.13419999999999999	0	0
-0.13419999999999999	0.13419999999999999	0	0
0.13419999999999999	0.13419999999999999	0	0
0.13419999999999999	-0.13419999999999999	0	0
0.067099999999999993	0	0	0
-0.067099999999999993	0	0	0
0.0385	0	0	0
-0.0385	0	0	0
0.07584599247005043	0.01376401833556146	0	0
0.067103997942426538	0.012177580225267019	0	0
0.07216945579396214	0.027085649796745964	0	0
0.063851218177630079	0.023963763002347573	0	0
0.06617333342742987	0.039536726187316171	0	0
0.05854620772364727	0.034979730719082801	0	0
0.058050345676939903	0.050717059667299363	0	0
0.051359473981446267	0.0448714211090884	0	0
0.048061572052409574	0.060267305119439868	0	0
0.04252200448676563	0.05332090710431963	0	0
0.036528059956921585	0.067880509796937744	0	0
0.032317842780658516	0.060056615272629524	0	0
0.023820505959030291	0.073311979037292543	0	0
0.021074959016371415	0.064862054411329473	0	0
0.010347341300038185	0.076387140950091484	0	0
0.0091547087287641073	0.067582773752573155	0	0
-0.0034583954221579344	0.077007157301205567	0	0
-0.0030597814299051138	0.068131327138117662	0	0
-0.017152976469908664	0.075152100254958804	0	0
-0.015175927695820638	0.066490083610800374	0	0
-0.030296246740400479	0.070881592871163621	0	0
-0.026804307158797586	0.062711794088008935	0	0
-0.042465770712820969	0.064332892770920344	0	0
-0.037571174135033386	0.056917895903792835	0	0
-0.053270409873578867	0.055716480563739214	0	0
-0.047130472660904157	0.049294609713028105	0	0
-0.062362894229960705	0.045309294827566599	0	0
-0.055174959016371407	0.040086954206346677	0	0
-0.069450983853431306	0.033445831075024024	0	0
-0.061446076790944971	0.029590871007817474	0	0
-0.07430686171139278	0.020507390792408701	0	0
-0.065742267099457186	0.018143712867647249	0	0
-0.076774455894060623	0.0069098260961880176	0	0
-0.067925446850475302	0.0061134008672141726	0	0
-0.076774455894060623	-0.0069098260961879985	0	0
-0.067925446850475302	-0.0061134008672141561	0	0
-0.07430686171139278	-0.020507390792408681	0	0
-0.065742267099457186	-0.018143712867647231	0	0
-0.06945098385343132	-0.033445831075024003	0	0
-0.061446076790944985	-0.029590871007817453	0	0
-0.062362894229960712	-0.045309294827566578	0	0
-0.055174959016371414	-0.040086954206346656	0	0
-0.053270409873578888	-0.055716480563739207	0	0
-0.047130472660904178	-0.049294609713028098	0	0
-0.04246577071282099	-0.064332892770920344	0	0
-0.0375711741350334	-0.056917895903792842	0	0
-0.030296246740400497	-0.070881592871163607	0	0
-0.0268043071587976	-0.062711794088008921	0	0
-0.017152976469908685	-0.075152100254958804	0	0
-0.015175927695820657	-0.066490083610800374	0	0
-0.0034583954221579531	-0.077007157301205553	0	0
-0.0030597814299051303	-0.068131327138117648	0	0
0.010347341300038166	-0.076387140950091498	0	0
0.0091547087287640917	-0.067582773752573155	0	0
0.023820505959030274	-0.073311979037292557	0	0
0.021074959016371398	-0.064862054411329487	0	0
0.036528059956921564	-0.067880509796937757	0	0
0.032317842780658496	-0.060056615272629538	0	0
0.048061572052409553	-0.060267305119439875	0	0
0.042522004486765616	-0.053320907104319637	0	0
0.058050345676939889	-0.050717059667299384	0	0
0.051359473981446253	-0.044871421109088414	0	0
0.066173333427429856	-0.039536726187316185	0	0
0.058546207723647256	-0.034979730719082808	0	0
0.072169455793962126	-0.027085649796745982	0	0
0.063851218177630065	-0.023963763002347586	0	0
0.07584599247005043	-0.013764018335561477	0	0
0.067103997942426538	-0.012177580225267035	0	0
0.077084776541860842	-1.8880324970995771e-017	0	0
0.068199999999999997	-1.6704182340369895e-017	0	0
0.035885037213182196	0.010536797625869468	0	0
0.027360156549131806	0.0080336668137662576	0	0
0.031462882127886171	0.020219966572839348	0	0
0.023988532473630135	0.015416493720337385	0	0
0.024491791449553661	0.028265034080849256	0	0
0.018673500162410817	0.021550367991105226	0	0
0.015536521486270551	0.034020236626258984	0	0
0.011845651923614574	0.025938359612207092	0	0
0.0053225749514208632	0.037019321926346875	0	0
0.0040581394147716603	0.028224979598892291	0	0
-0.0053225749514208588	0.037019321926346882	0	0
-0.0040581394147716568	0.028224979598892294	0	0
-0.015536521486270547	0.034020236626258984	0	0
-0.011845651923614572	0.025938359612207092	0	0
-0.024491791449553657	0.028265034080849259	0	0
-0.018673500162410817	0.021550367991105226	0	0
-0.031462882127886171	0.020219966572839355	0	0
-0.023988532473630135	0.01541649372033739	0	0
-0.035885037213182196	0.010536797625869468	0	0
-0.027360156549131806	0.0080336668137662576	0	0
-0.037399999999999996	4.5801790288111007e-018	0	0
-0.028515223458139154	3.4921077134981638e-018	0	0
-0.035885037213182203	-0.010536797625869457	0	0
-0.027360156549131813	-0.0080336668137662489	0	0
-0.031462882127886171	-0.020219966572839348	0	0
-0.023988532473630135	-0.015416493720337385	0	0
-0.024491791449553664	-0.028265034080849252	0	0
-0.01867350016241082	-0.021550367991105223	0	0
-0.015536521486270549	-0.034020236626258984	0	0
-0.011845651923614572	-0.025938359612207092	0	0
-0.0053225749514208666	-0.037019321926346875	0	0
-0.0040581394147716629	-0.028224979598892291	0	0
0.0053225749514208536	-0.037019321926346882	0	0
0.0040581394147716533	-0.028224979598892294	0	0
0.015536521486270537	-0.034020236626258991	0	0
0.011845651923614564	-0.025938359612207095	0	0
0.024491791449553667	-0.028265034080849252	0	0
0.018673500162410823	-0.021550367991105223	0	0
0.031462882127886171	-0.020219966572839341	0	0
0.023988532473630135	-0.01541649372033738	0	0
0.035885037213182196	-0.010536797625869473	0	0
0.027360156549131806	-0.008033666813766261	0	0
0.037399999999999996	-9.1603580576222014e-018	0	0
0.028515223458139154	-6.9842154269963277e-018	0	0
0.022944005566956978	0.016592904749554879	0	0
0.015744614654891725	0.01138636802212532	0	0
0.012604800653249593	0.025354898540049266	0	0
0.0086496548524619011	0.017399015440523975	0	0
-0.00062201218580223549	0.028308390634669913	0	0
-0.00042683663702588548	0.019425758102365059	0	0
-0.013706329529146232	0.024776771587977472	0	0
-0.0094055449969101534	0.01700229368871764	0	0
-0.023650691956539859	0.015569092762945904	0	0
-0.016229556347107099	0.010683808690836096	0	0
-0.028176965878426025	0.0027947224138309872	0	0
-0.019335571925538413	0.001917791875736265	0	0
-0.026248236486814569	-0.010619885160236441	0	0
-0.018012040994730954	-0.0072875679461972005	0	0
-0.018306352441614767	-0.021601605027583917	0	0
-0.012562168540655899	-0.014823433776371268	0	0
-0.0061707036675037385	-0.027634657510673254	0	0
-0.0042344546644589665	-0.018963429570121301	0	0
0.0073785789517916683	-0.027336942991792821	0	0
0.0050633217446548291	-0.01875913218345707	0	0
0.019237518054747514	-0.020776664279369226	0	0
0.013201152161710063	-0.014257343685612937	0	0
0.026689373608585525	-0.0094567021664897638	0	0
0.018314757709647307	-0.0064893695690123711	0	0
0.028027015310516108	0.0040296764471169939	0	0
0.01923267298306152	0.0027652409104677936	0	0
[NumSegments] = 4
0	1	-1	0	0	0
1	2	-1	0	0	0
2	3	-1	0	0	0
0	3	-1	0	0	0
[NumArcSegments] = 144
4	5	180	10	0	0	0	10
5	4	180	10	0	0	0	10
6	7	180	10	0	0	0	10
7	6	180	10	0	0	0	10
8	9	180	10	0	0	0	10
9	8	180	10	0	0	0	10
10	11	180	10	0	0	0	10
11	10	180	10	0	0	0	10
12	13	180	10	0	0	0	10
13	12	180	10	0	0	0	10
14	15	180	10	0	0	0	10
15	14	180	10	0	0	0	10
16	17	180	10	0	0	0	10
17	16	180	10	0	0	0	10
18	19	180	10	0	0	0	10
19	18	180	10	0	0	0	10
20	21	180	10	0	0	0	10
21	20	180	10	0	0	0	10
22	23	180	10	0	0	0	10
23	22	180	10	0	0	0	10
24	25	180	10	0	0	0	10
25	24	180	10	0	0	0	10
26	27	180	10	0	0	0	10
27	26	180	10	0	0	0	10
28	29	180	10	0	0	0	10
29	28	180	10	0	0	0	10
30	31	180	10	0	0	0	10
31	30	180	10	0	0	0	10
32	33	180	10	0	0	0	10
33	32	180	10	0	0	0	10
34	35	180	10	0	0	0	10
35	34	180	10	0	0	0	10
36	37	180	10	0	0	0	10
37	36	180	10	0	0	0	10
38	39	180	10	0	0	0	10
39	38	180	10	0	0	0	10
40	41	180	10	0	0	0	10
41	40	180	10	0	0	0	10
42	43	180	10	0	0	0	10
43	42	180	10	0	0	0	10
44	45	180	10	0	0	0	10
45	44	180	10	0	0	0	10
46	47	180	10	0	0	0	10
47	46	180	10	0	0	0	10
48	49	180	10	0	0	0	10
49	48	180	10	0	0	0	10
50	51	180	10	0	0	0	10
51	50	180	10	0	0	0	10
52	53	180	10	0	0	0	10
53	52	180	10	0	0	0	10
54	55	180	10	0	0	0	10
55	54	180	10	0	0	0	10
56	57	180	10	0	0	0	10
57	56	180	10	0	0	0	10
58	59	180	10	0	0	0	10
59	58	180	10	0	0	0	10
60	61	180	10	0	0	0	10
61	60	180	10	0	0	0	10
62	63	180	10	0	0	0	10
63	62	180	10	0	0	0	10
64	65	180	10	0	0	0	10
65	64	180	10	0	0	0	10
66	67	180	10	0	0	0	10
67	66	180	10	0	0	0	10
68	69	180	10	0	0	0	10
69	68	180	10	0	0	0	10
70	71	180	10	0	0	0	10
71	70	180	10	0	0	0	10
72	73	180	10	0	0	0	10
73	72	180	10	0	0	0	10
74	75	180	10	0	0	0	10
75	74	180	10	0	0	0	10
76	77	180	10	0	0	0	10
77	76	180	10	0	0	0	10
78	79	180	10	0	0	0	10
79	78	180	10	0	0	0	10
80	81	180	10	0	0	0	10
81	80	180	10	0	0	0	10
82	83	180	10	0	0	0	10
83	82	180	10	0	0	0	10
84	85	180	10	0	0	0	10
85	84	180	10	0	0	0	10
86	87	180	10	0	0	0	10
87	86	180	10	0	0	0	10
88	89	180	10	0	0	0	10
89	88	180	10	0	0	0	10
90	91	180	10	0	0	0	10
91	90	180	10	0	0	0	10
92	93	180	10	0	0	0	10
93	92	180	10	0	0	0	10
94	95	180	10	0	0	0	10
95	94	180	10	0	0	0	10
96	97	180	10	0	0	0	10
97	96	180	10	0	0	0	10
98	99	180	10	0	0	0	10
99	98	180	10	0	0	0	10
100	101	180	10	0	0	0	10
101	100	180	10	0	0	0	10
102	103	180	10	0	0	0	10
103	102	180	10	0	0	0	10
104	105	180	10	0	0	0	10
105	104	180	10	0	0	0	10
106	107	180	10	0	0	0	10
107	106	180	10	0	0	0	10
108	109	180	10	0	0	0	10
109	108	180	10	0	0	0	10
110	111	180	10	0	0	0	10
111	110	180	10	0	0	0	10
112	113	180	10	0	0	0	10
113	112	180	10	0	0	0	10
114	115	180	10	0	0	0	10
115	114	180	10	0	0	0	10
116	117	180	10	0	0	0	10
117	116	180	10	0	0	0	10
118	119	180	10	0	0	0	10
119	118	180	10	0	0	0	10
120	121	180	10	0	0	0	10
121	120	180	10	0	0	0	10
122	123	180	10	0	0	0	10
123	122	180	10	0	0	0	10
124	125	180	10	0	0	0	10
125	124	180	10	0	0	0	10
126	127	180	10	0	0	0	10
127	126	180	10	0	0	0	10
128	129	180	10	0	0	0	10
129	128	180	10	0	0	0	10
130	131	180	10	0	0	0	10
131	130	180	10	0	0	0	10
132	133	180	10	0	0	0	10
133	132	180	10	0	0	0	10
134	135	180	10	0	0	0	10
135	134	180	10	0	0	0	10
136	137	180	10	0	0	0	10
137	136	180	10	0	0	0	10
138	139	180	10	0	0	0	10
139	138	180	10	0	0	0	10
140	141	180	10	0	0	0	10
141	140	180	10	0	0	0	10
142	143	180	10	0	0	0	10
143	142	180	10	0	0	0	10
144	145	180	10	0	0	0	10
145	144	180	10	0	0	0	10
146	147	180	10	0	0	0	10
147	146	180	10	0	0	0	10
[NumHoles] = 0
[NumBlockLabels] = 73
-0.13219999999999998	-0.13219999999999998	1	-1	0	0	1	1	0
0.0528	0	2	-1	0	0	2	1	0
0	0	1	-1	0	0	1	1	0
0.071474995206238484	0.012970799280414239	3	-1	1	0	3	1	0
0.068010336985796116	0.025524706399546768	3	-1	1	0	4	1	0
0.06235977057553857	0.037258228453199482	3	-1	1	0	5	1	0
0.054704909829193085	0.047794240388193882	3	-1	1	0	6	1	0
0.045291788269587602	0.056794106111879752	3	-1	1	0	7	1	0
0.034422951368790047	0.063968562534783641	3	-1	1	0	8	1	0
0.022447732487700853	0.069087016724311001	3	-1	1	0	9	1	0
0.0097510250144011469	0.071984957351332313	3	-1	1	0	10	1	0
-0.0032590884260315241	0.072569242219661614	3	-1	1	0	11	1	0
-0.016164452082864652	0.070821091932879582	3	-1	1	0	12	1	0
-0.028550276949599031	0.066796693479586278	3	-1	1	0	13	1	0
-0.040018472423927177	0.060625394337356593	3	-1	1	0	14	1	0
-0.050200441267241512	0.052505545138383659	3	-1	1	0	15	1	0
-0.05876892662316606	0.042698124516956634	3	-1	1	0	16	1	0
-0.065448530322188142	0.031518351041420749	3	-1	1	0	17	1	0
-0.070024564405424983	0.019325551830027977	3	-1	1	0	18	1	0
-0.072349951372267962	0.0065116134817010951	3	-1	1	0	19	1	0
-0.072349951372267962	-0.0065116134817010769	3	-1	1	0	20	1	0
-0.070024564405424983	-0.019325551830027956	3	-1	1	0	21	1	0
-0.065448530322188156	-0.031518351041420728	3	-1	1	0	22	1	0
-0.058768926623166066	-0.04269812451695662	3	-1	1	0	23	1	0
-0.050200441267241533	-0.052505545138383652	3	-1	1	0	24	1	0
-0.040018472423927198	-0.060625394337356593	3	-1	1	0	25	1	0
-0.028550276949599048	-0.066796693479586264	3	-1	1	0	26	1	0
-0.016164452082864669	-0.070821091932879582	3	-1	1	0	27	1	0
-0.0032590884260315415	-0.0725692422196616	3	-1	1	0	28	1	0
0.0097510250144011278	-0.071984957351332327	3	-1	1	0	29	1	0
0.022447732487700836	-0.069087016724311015	3	-1	1	0	30	1	0
0.034422951368790027	-0.063968562534783655	3	-1	1	0	31	1	0
0.045291788269587581	-0.056794106111879752	3	-1	1	0	32	1	0
0.054704909829193071	-0.047794240388193902	3	-1	1	0	33	1	0
0.062359770575538556	-0.037258228453199496	3	-1	1	0	34	1	0
0.068010336985796102	-0.025524706399546782	3	-1	1	0	35	1	0
0.071474995206238484	-0.012970799280414256	3	-1	1	0	36	1	0
0.072642388270930419	-1.7792253655682834e-017	3	-1	1	0	37	1	0
0.031622596881156997	0.0092852322198178627	3	-1	1	0	38	-1	0
0.027725707300758153	0.017818230146588367	3	-1	1	0	39	-1	0
0.02158264580598224	0.024907701035977239	3	-1	1	0	40	-1	0
0.013691086704942563	0.029979298119233038	3	-1	1	0	41	-1	0
0.0046903571830962613	0.032622150762619581	3	-1	1	0	42	-1	0
-0.0046903571830962578	0.032622150762619588	3	-1	1	0	43	-1	0
-0.013691086704942559	0.029979298119233038	3	-1	1	0	44	-1	0
-0.021582645805982237	0.024907701035977243	3	-1	1	0	45	-1	0
-0.027725707300758153	0.017818230146588371	3	-1	1	0	46	-1	0
-0.031622596881156997	0.0092852322198178627	3	-1	1	0	47	-1	0
-0.032957611729069573	4.0361433711546327e-018	3	-1	1	0	48	-1	0
-0.031622596881157011	-0.0092852322198178541	3	-1	1	0	49	-1	0
-0.027725707300758153	-0.017818230146588367	3	-1	1	0	50	-1	0
-0.021582645805982244	-0.024907701035977239	3	-1	1	0	51	-1	0
-0.013691086704942561	-0.029979298119233038	3	-1	1	0	52	-1	0
-0.0046903571830962647	-0.032622150762619581	3	-1	1	0	53	-1	0
0.0046903571830962535	-0.032622150762619588	3	-1	1	0	54	-1	0
0.01369108670494255	-0.029979298119233042	3	-1	1	0	55	-1	0
0.021582645805982244	-0.024907701035977239	3	-1	1	0	56	-1	0
0.027725707300758153	-0.01781823014658836	3	-1	1	0	57	-1	0
0.031622596881156997	-0.0092852322198178679	3	-1	1	0	58	-1	0
0.032957611729069573	-8.0722867423092653e-018	3	-1	1	0	59	-1	0
0.01934431011092435	0.013989636385840099	3	-1	1	0	60	-1	0
0.010627227752855746	0.021376956990286619	3	-1	1	0	61	-1	0
-0.00052442441141406049	0.023867074368517486	3	-1	1	0	62	-1	0
-0.011555937263028193	0.020889532638347554	3	-1	1	0	63	-1	0
-0.019940124151823481	0.013126450726891	3	-1	1	0	64	-1	0
-0.023756268901982219	0.0023562571447836261	3	-1	1	0	65	-1	0
-0.022130138740772763	-0.0089537265532168217	3	-1	1	0	66	-1	0
-0.015434260491135332	-0.018212519401977594	3	-1	1	0	67	-1	0
-0.0052025791659813525	-0.023299043540397277	3	-1	1	0	68	-1	0
0.0062209503482232482	-0.023048037587624946	3	-1	1	0	69	-1	0
0.016219335108228788	-0.017517003982491081	3	-1	1	0	70	-1	0
0.022502065659116416	-0.007973035867751067	3	-1	1	0	71	-1	0
0.023629844146788814	0.0033974586787923937	3	-1	1	0	72	-1	0
