[Format]      =  4.0
[Frequency]   =  50
[Precision]   =  1.0000000000000001e-009
[MinAngle]    =  20
[DoSmartMesh] =  1
[Depth]       =  0.24570000000000003
[LengthUnits] =  meters
[ProblemType] =  planar
[Coordinates] =  cartesian
[ACSolver]    =  0
[PrevType]    =  0
[PrevSoln]    =  ""
[Comment]     =  "Add comments here."
[PointProps]   = 0
[BdryProps]   = 1
  <BeginBdry>
    <BdryName> = "Z"
    <BdryType> = 0
    <A_0> = 0
    <A_1> = 0
    <A_2> = 0
    <Phi> = 0
    <c0> = 0
    <c0i> = 0
    <c1> = 0
    <c1i> = 0
    <Mu_ssd> = 0
    <Sigma_ssd> = 0
    <innerangle> = 0
    <outerangle> = 0
  <EndBdry>
[BlockProps]  = 4
  <BeginBlock>
    <BlockName> = "A"
    <Mu_x> = 1
    <Mu_y> = 1
    <H_c> = 0
    <H_cAngle> = 0
    <J_re> = 0
    <J_im> = 0
    <Sigma> = 0
    <d_lam> = 0
    <Phi_h> = 0
    <Phi_hx> = 0
    <Phi_hy> = 0
    <LamType> = 0
    <LamFill> = 1
    <NStrands> = 0
    <WireD> = 0
    <BHPoints> = 0
  <EndBlock>
  <BeginBlock>
    <BlockName> = "FE"
    <Mu_x> = 48.218399564104807
    <Mu_y> = 48.218399564104807
    <H_c> = 0
    <H_cAngle> = 0
    <J_re> = 0
    <J_im> = 0
    <Sigma> = 0
    <d_lam> = 0
    <Phi_h> = 0
    <Phi_hx> = 0
    <Phi_hy> = 0
    <LamType> = 0
    <LamFill> = 1
    <NStrands> = 0
    <WireD> = 0
    <BHPoints> = 0
  <EndBlock>
  <BeginBlock>
    <BlockName> = "CU"
    <Mu_x> = 1
    <Mu_y> = 1
    <H_c> = 0
    <H_cAngle> = 0
    <J_re> = 0
    <J_im> = 0
    <Sigma> = 37.131565751982535
    <d_lam> = 0
    <Phi_h> = 0
    <Phi_hx> = 0
    <Phi_hy> = 0
    <LamType> = 5
    <LamFill> = 1
    <NStrands> = 13147
    <WireD> = 0.17999999999999999
    <BHPoints> = 0
  <EndBlock>
  <BeginBlock>
    <BlockName> = "AL"
    <Mu_x> = 1
    <Mu_y> = 1
    <H_c> = 0
    <H_cAngle> = 0
    <J_re> = 0
    <J_im> = 0
    <Sigma> = 37.131565751982535
    <d_lam> = 0
    <Phi_h> = 0
    <Phi_hx> = 0
    <Phi_hy> = 0
    <LamType> = 0
    <LamFill> = 1
    <NStrands> = 13147
    <WireD> = 0.17999999999999999
    <BHPoints> = 0
  <EndBlock>
[CircuitProps]  = 2
  <BeginCircuit>
    <CircuitName> = "W1"
    <TotalAmps_re> = 204.12414523193149
    <TotalAmps_im> = 0
    <CircuitType> = 1
  <EndCircuit>
  <BeginCircuit>
    <CircuitName> = "W2"
    <TotalAmps_re> = 0
    <TotalAmps_im> = 0
    <CircuitType> = 1
  <EndCircuit>
[NumPoints] = 44
-0.16719999999999999	-0.16719999999999999	0	0
-0.16719999999999999	0.16719999999999999	0	0
0.16719999999999999	0.16719999999999999	0	0
0.16719999999999999	-0.16719999999999999	0	0
0.083599999999999994	0	0	0
-0.083599999999999994	0	0	0
0.043450000000000003	0	0	0
-0.043450000000000003	0	0	0
0.082560923204735334	0.06927684021074916	0	0
0.064883964332177427	0.054444110540449876	0	0
0.018715041914056416	0.10613827696057153	0	0
0.014708000648389005	0.083413216680134017	0	0
-0.053887815482731971	0.093336434324988601	0	0
-0.042349999999999985	0.073352351700541954	0	0
-0.10127596511879175	0.036861436749822389	0	0
-0.079591964980566435	0.028969106139684155	0	0
-0.10127596511879176	-0.036861436749822368	0	0
-0.079591964980566449	-0.028969106139684137	0	0
-0.05388781548273204	-0.093336434324988574	0	0
-0.04235000000000004	-0.07335235170054194	0	0
0.01871504191405637	-0.10613827696057154	0	0
0.01470800064838897	-0.083413216680134017	0	0
0.08256092320473532	-0.069276840210749188	0	0
0.064883964332177413	-0.054444110540449897	0	0
0.10777563096546398	-2.6397416297588365e-017	0	0
0.084699999999999998	-2.0745516777556161e-017	0	0
0.029945972183250288	0.029945972183250284	0	0
0.013629037047412425	0.013629037047412421	0	0
2.5931895971945205e-018	0.042349999999999999	0	0
1.1802147171864696e-018	0.019274369034536012	0	0
-0.029945972183250284	0.029945972183250288	0	0
-0.013629037047412421	0.013629037047412425	0	0
-0.042349999999999999	5.1863791943890411e-018	0	0
-0.019274369034536012	2.3604294343729391e-018	0	0
-0.029945972183250295	-0.029945972183250284	0	0
-0.013629037047412428	-0.013629037047412421	0	0
-7.77956879158356e-018	-0.042349999999999999	0	0
-3.5406441515594072e-018	-0.019274369034536012	0	0
0.029945972183250281	-0.029945972183250295	0	0
0.013629037047412421	-0.013629037047412428	0	0
0.042349999999999999	-1.0372758388778082e-017	0	0
0.019274369034536012	-4.7208588687458783e-018	0	0
0.017622419146574895	0.0072994450123346289	0	0
-0.0036966840022009465	-0.0015312166495192832	0	0
[NumSegments] = 4
0	1	-1	0	0	0
1	2	-1	0	0	0
2	3	-1	0	0	0
0	3	-1	0	0	0
[NumArcSegments] = 40
4	5	180	10	0	0	0	1
5	4	180	10	0	0	0	1
6	7	180	10	0	0	0	1
7	6	180	10	0	0	0	1
8	9	180	10	0	0	0	1
9	8	180	10	0	0	0	1
10	11	180	10	0	0	0	1
11	10	180	10	0	0	0	1
12	13	180	10	0	0	0	1
13	12	180	10	0	0	0	1
14	15	180	10	0	0	0	1
15	14	180	10	0	0	0	1
16	17	180	10	0	0	0	1
17	16	180	10	0	0	0	1
18	19	180	10	0	0	0	1
19	18	180	10	0	0	0	1
20	21	180	10	0	0	0	1
21	20	180	10	0	0	0	1
22	23	180	10	0	0	0	1
23	22	180	10	0	0	0	1
24	25	180	10	0	0	0	1
25	24	180	10	0	0	0	1
26	27	180	10	0	0	0	1
27	26	180	10	0	0	0	1
28	29	180	10	0	0	0	1
29	28	180	10	0	0	0	1
30	31	180	10	0	0	0	1
31	30	180	10	0	0	0	1
32	33	180	10	0	0	0	1
33	32	180	10	0	0	0	1
34	35	180	10	0	0	0	1
35	34	180	10	0	0	0	1
36	37	180	10	0	0	0	1
37	36	180	10	0	0	0	1
38	39	180	10	0	0	0	1
39	38	180	10	0	0	0	1
40	41	180	10	0	0	0	1
41	40	180	10	0	0	0	1
42	43	180	10	0	0	0	1
43	42	180	10	0	0	0	1
[NumHoles] = 0
[NumBlockLabels] = 21
-0.16519999999999999	-0.16519999999999999	1	-1	0	0	1	1	0
0.063524999999999998	0	2	-1	0	0	2	1	0
0	0	1	-1	0	0	1	1	0
0.07372244376845638	0.061860475375599522	3	-1	1	0	3	1	0
0.016711521281222712	0.094775746820352766	3	-1	1	0	4	1	0
-0.048118907741365978	0.083344393012765278	3	-1	1	0	5	1	0
-0.090433965049679099	0.032915271444753272	3	-1	1	0	6	1	0
-0.090433965049679099	-0.032915271444753251	3	-1	1	0	7	1	0
-0.04811890774136604	-0.08334439301276525	3	-1	1	0	8	1	0
0.01671152128122267	-0.09477574682035278	3	-1	1	0	9	1	0
0.073722443768456367	-0.061860475375599543	3	-1	1	0	10	1	0
0.096237815482731998	-2.3571466537572262e-017	3	-1	1	0	11	1	0
0.021787504615331355	0.021787504615331355	3	-1	1	0	12	-1	0
1.8867021571904951e-018	0.030812184517268006	3	-1	1	0	13	-1	0
-0.021787504615331355	0.021787504615331355	3	-1	1	0	14	-1	0
-0.030812184517268006	3.7734043143809901e-018	3	-1	1	0	15	-1	0
-0.021787504615331361	-0.021787504615331355	3	-1	1	0	16	-1	0
-5.660106471571484e-018	-0.030812184517268006	3	-1	1	0	17	-1	0
0.021787504615331351	-0.021787504615331361	3	-1	1	0	18	-1	0
0.030812184517268006	-7.5468086287619802e-018	3	-1	1	0	19	-1	0
0.0069628675721869742	0.0028841141814076729	3	-1	1	0	20	-1	0
